
This file was generated by AeroDyn (v13.00.02a-bjj, 20-Feb-2013) on 25-May-2018 at 13:44:31.

Inputs read in from the AeroDyn input file:
Aerodyn input file for FAST

SI	Units for input and output         
BEDDOES	Dynamic stall model                 [Beddoes]
NO_CM	Aerodynamic pitching moment model   [NO Pitching Moments calculated]
DYNIN	Inflow model                        [Dynamic Inflow]
SWIRL	Induction factor model              [Normal and Radial flow induction factors calculated]
5.00000E-03	Convergence tolerance for induction factor
[Not Used]	Tip-loss model                     
[Not Used]	Hub-loss model                     
"/fslhome/ingerbry/GradPrograms/RotorSE_FAST/WND_Files/turb_wnd_dir/dlc_1ETM_seed1_mws11.hh"	  Wind file name
90	Wind reference (hub) height, m
0	Tower shadow centerline velocity deficit
9999.9	Tower shadow half width, m
9999.9	Tower shadow reference point, m
1.225	Air density, kg/m^3
1.47920E-05	Kinematic air viscosity, m^2/sec
2.47900E-02	Time interval for aerodynamic calculations, sec
8	Number of airfoil files used. Files listed below:
"/fslhome/ingerbry/GradPrograms/RotorSE_FAST/RotorSE/src/rotorse/FAST_Files/Opt_Files/test_ranges/sm_44/sgp4/WNDfile1_sgp4/AeroData/Airfoil0.dat"
"/fslhome/ingerbry/GradPrograms/RotorSE_FAST/RotorSE/src/rotorse/FAST_Files/Opt_Files/test_ranges/sm_44/sgp4/WNDfile1_sgp4/AeroData/Airfoil1.dat"
"/fslhome/ingerbry/GradPrograms/RotorSE_FAST/RotorSE/src/rotorse/FAST_Files/Opt_Files/test_ranges/sm_44/sgp4/WNDfile1_sgp4/AeroData/Airfoil2.dat"
"/fslhome/ingerbry/GradPrograms/RotorSE_FAST/RotorSE/src/rotorse/FAST_Files/Opt_Files/test_ranges/sm_44/sgp4/WNDfile1_sgp4/AeroData/Airfoil3.dat"
"/fslhome/ingerbry/GradPrograms/RotorSE_FAST/RotorSE/src/rotorse/FAST_Files/Opt_Files/test_ranges/sm_44/sgp4/WNDfile1_sgp4/AeroData/Airfoil4.dat"
"/fslhome/ingerbry/GradPrograms/RotorSE_FAST/RotorSE/src/rotorse/FAST_Files/Opt_Files/test_ranges/sm_44/sgp4/WNDfile1_sgp4/AeroData/Airfoil5.dat"
"/fslhome/ingerbry/GradPrograms/RotorSE_FAST/RotorSE/src/rotorse/FAST_Files/Opt_Files/test_ranges/sm_44/sgp4/WNDfile1_sgp4/AeroData/Airfoil6.dat"
"/fslhome/ingerbry/GradPrograms/RotorSE_FAST/RotorSE/src/rotorse/FAST_Files/Opt_Files/test_ranges/sm_44/sgp4/WNDfile1_sgp4/AeroData/Airfoil7.dat"
17	Number of blade elements per blade

     Element     RELM       Twist       DR        Chord      NFoil     Print?    Tip-loss   Hub-loss 
       (-)        (m)       (deg)       (m)        (m)        (-)     (Yes/No)   constant   constant 
   ---------- ---------- ---------- ---------- ---------- ---------- ---------- ---------- ----------
            1    2.90420    8.57800    2.73340    3.47800          1         No   31.05845    1.33337
            2    6.57711    8.57800    4.61240    4.17600          1         No   12.87657    4.91669
            3   10.25002    8.51300    2.73340    4.70000          2         No    7.72498    8.50002
            4   13.92294    8.59700    4.61240    5.02400          3         No    5.29140   12.08336
            5   17.59585   11.32600    2.73340    5.04900          4         No    3.87378   15.66668
            6   21.26876   13.18600    4.61240    4.91400          4         No    2.94578   19.25001
            7   24.94167   13.88700    2.73340    4.71300          5         No    2.29110   22.83334
            8   28.61459   13.39800    4.61240    4.46700          6         No    1.80448   26.41667
            9   32.28750   11.44400    2.73340    4.20200          6         No    1.42857   30.00000
           10   35.96041    7.75800    4.61240    3.94000          7         No    1.12945   33.58333
           11   39.63333    3.32000    2.73340    3.70700          7         No    0.88578   37.16666
           12   43.30624   -0.76400    4.61240    3.49500          8         No    0.68343   40.74999
           13   46.97915   -3.45300    2.73340    3.28600          8         No    0.51273   44.33332
           14   50.65206   -4.88100    4.61240    3.07800          8         No    0.36678   47.91664
           15   54.32498   -5.68500    2.73340    2.87000          8         No    0.24057   51.49998
           16   57.99789   -5.94400    4.61240    2.66500          8         No    0.13034   55.08331
           17   61.67080   -5.49100    2.73340    2.46100          8         No    0.03324   58.66663


 Rotor radius     =  62.978 m
 Hub radius       =   1.536 m
 Number of blades =   3

  BEDDOES DYNAMIC STALL PARAMETERS:

   CN SLOPE           0.0000     0.0000     7.4888     7.1838     7.3326     6.4462     6.2047     6.0031
   STALL CN (UPPER)   0.0000     0.0000     1.3519     1.6717     1.4490     1.4336     1.4144     1.4073
   STALL CN (LOWER)   0.0000     0.0000    -0.3226    -0.3075    -0.6138    -0.6873    -0.5324    -0.7945
   ZERO LIFT AOA      0.0000     0.0000    -1.3430    -1.8330    -2.3220    -4.2422    -5.0609    -4.4320
   MIN DRAG AOA       0.0000     0.0000     0.0000     0.0000     0.0000     0.0000    -1.5000    -1.0000
   MIN DRAG COEFF     0.5000     0.3500     0.0113     0.0094     0.0087     0.0065     0.0057     0.0052


     VORTEX TRANSIT TIME FROM LE TO TE    11.000000000000000     
     PRESSURE TIME CONSTANT               1.7000000000000000     
     VORTEX TIME CONSTANT                 6.0000000000000000     
     F-PARAMETER TIME CONSTANT            3.0000000000000000     
